opendss/LVTestCase/data/PV/PV_549.txt
New generator.m_gen50 Phases=1 Bus1=886.2 kV=0.23 kW=1 PF=0.95 Yearly=NM_Shape_74
New generator.m_gen17 Phases=1 Bus1=327.3 kV=0.23 kW=1 PF=0.95 Yearly=NM_Shape_152
New generator.m_gen51 Phases=1 Bus1=896.1 kV=0.23 kW=1 PF=0.95 Yearly=PV_Shape_139
New generator.m_gen20 Phases=1 Bus1=349.1 kV=0.23 kW=1 PF=0.95 Yearly=NM_Shape_157
New generator.m_gen44 Phases=1 Bus1=785.2 kV=0.23 kW=1 PF=0.95 Yearly=NM_Shape_60
New generator.m_gen8 Phases=1 Bus1=208.3 kV=0.23 kW=1 PF=0.95 Yearly=PV_Shape_18
New generator.m_gen42 Phases=1 Bus1=778.3 kV=0.23 kW=1 PF=0.95 Yearly=PV_Shape_87
New generator.m_gen14 Phases=1 Bus1=289.1 kV=0.23 kW=1 PF=0.95 Yearly=PV_Shape_95
New generator.m_gen3 Phases=1 Bus1=70.1 kV=0.23 kW=1 PF=0.95 Yearly=NM_Shape_70
New generator.m_gen25 Phases=1 Bus1=502.1 kV=0.23 kW=1 PF=0.95 Yearly=NM_Shape_86
New generator.m_gen34 Phases=1 Bus1=629.1 kV=0.23 kW=1 PF=0.95 Yearly=NM_Shape_111
